7

O       0.242681950330734     -0.890056848526001      0.285409450531006
C      -0.576491475105286      0.004530094563961      0.882613778114319
N      -0.688742697238922      1.105772018432617      0.228888526558876
N       0.112233556807041      0.962601602077484     -0.899378240108490
C       0.629869580268860     -0.211314514279366     -0.817452788352966
H      -1.033525228500366     -0.277104139328003      1.819702267646790
H       1.313974380493164     -0.694428324699402     -1.499782919883728
