7

N       0.116135403513908      0.964622378349304     -0.898810148239136
C      -0.569239497184753      0.011401196941733      0.882951021194458
O       0.241060465574265     -0.888682603836060      0.284219354391098
N      -0.692791342735291      1.105030298233032      0.235238164663315
C       0.635432898998260     -0.218192562460899     -0.822457492351532
H       1.304766058921814     -0.693651020526886     -1.493985772132874
H      -1.035363793373108     -0.280527740716934      1.812845110893250
